pandapower/test/converter/testfiles/test_ucte_HR.uct
##C 2007.05.01
UCTE Export
test_ucte-Berechnungsfall

----- NODE BLOCK -----
_________1_________2_________3_________4_________5_________6_________7_________8_________9________10________11________12________13
1234567890123456789012345678901234567890123456789012345678901234567890123456789012345678901234567890123456789012345678901234567890
Node    |Node Name   |S|T|Volt  |PLoad  |QLoad  |PGen   |QGen   |Pmin   |Pmax   |Qmin   |Qmax   |Sta  |Pprim  |Sks__  |X/R    |T|

##N
##ZHR
HBUS1_1_ Bus1_1_HR    0 3 383.80       0       0 -110.58 7315.43 9999.00 -9999.0 1827.25 -1827.3 
HBUS1_1K Bus1_HK      0 3 383.80       0       0 -221.14 8420.41 9999.00 -9999.0 1827.25 -1827.3 
HBUS2_1_ Bus2_1_HR    0 0        110.496 -1105.0       0       0 
HBUS2_1K Bus2_HK      0 0        221.002 -2210.0       0       0 
##C

----- LINE BLOCK -----
_________1_________2_________3_________4_________5_________6_________7
1234567890123456789012345678901234567890123456789012345678901234567890
Node 1  |Node 2  |O|S|R(Ohm)|X(Ohm)|B(uS)   |I(A)  |Element Name|

##L
HBUS1_1_ HBUS2_1_ 1 0 0.7198 3.0866 42.16017    768 line2_HR    
HBUS1_1K HBUS2_1K 1 0 0.7198 3.0866 42.16017    768 line1_HR    
##C

----- 2 WINDING TRANSFORMER BLOCK -----
_________1_________2_________3_________4_________5_________6_________7_________8_________9
123456789012345678901234567890123456789012345678901234567890123456789012345678901234567890
Node 1  |Node 2  |O|S|U1   |U2   |Sn   |R(Ohm)|X(Ohm)|B(uS)   |G(uS) |I(A)  |Element Name|

##T
##C

----- 2 WINDINGS TRANSFORMERS REGULATION BLOCK -----
_________1_________2_________3_________4_________5_________6_________7
1234567890123456789012345678901234567890123456789012345678901234567890
Node 1  |Node 2  |O|du   |mx|Tap|U    |du   |phitr|mx|Tap|P    |Type|

##R
##C

----- 2 WINDINGS TRANSFORMERS DEPENDING ON THE TAP POSITION BLOCK -----
_________1_________2_________3_________4_________5_________6
123456789012345678901234567890123456789012345678901234567890
Node 1  |Node 2  |O| |Tap|R(Ohm)|X(Ohm)|du   |phi  |

##TT
